[info]
title=LS-DYNA
type=lexer
subdir=-

[lexer1]
file=LS-DYNA
